@<TRIPOS>MOLECULE
*****
 143 145 0 0 0
SMALL
USER_CHARGES

@<TRIPOS>ATOM
      1 C1         -5.7172   -5.6764    0.0274 C.3     1  NONAME1    -0.0648
      2 C2         -4.2126   -5.9146   -0.0129 C.3     1  NONAME1    -0.0476
      3 C3         -3.8114   -7.4020   -0.1572 C.3     1  NONAME1     0.0237
      4 C4         -2.3001   -7.5958    0.0337 C.2     1  NONAME1     0.2136
      5 O1         -1.5907   -6.6249    0.2449 O.2     1  NONAME1    -0.2758
      6 N1         -1.8310   -8.9177   -0.0486 N.am    1  NONAME1    -0.3040
      7 C5         -0.4230   -9.3620    0.3106 C.3     1  NONAME1     0.1002
      8 C6          0.5899   -8.2064    0.0041 C.3     1  NONAME1    -0.0146
      9 C7          2.0901   -8.4524    0.1003 C.3     1  NONAME1     0.0252
     10 S1          2.9856   -7.0579    0.9118 S.O     1  NONAME1     0.0191
     11 O2          4.4552   -7.2930    0.7132 O.2     1  NONAME1    -0.2575
     12 C8          2.5231   -5.6775   -0.1657 C.3     1  NONAME1     0.0117
     13 C9          0.0312  -10.8125   -0.2737 C.2     1  NONAME1     0.2341
     14 O3          0.9262  -10.8978   -1.1139 O.2     1  NONAME1    -0.2738
     15 N2         -0.5937  -11.9721    0.2262 N.am    1  NONAME1    -0.2995
     16 C10        -0.3824  -13.3854   -0.3483 C.3     1  NONAME1     0.1364
     17 C11         0.9109  -14.2236   -0.0020 C.3     1  NONAME1     0.1270
     18 O4          2.2135  -13.6577   -0.2288 O.3     1  NONAME1    -0.4580
     19 C12         3.1368  -14.0897    0.6843 C.2     1  NONAME1     0.3282
     20 O5          3.2941  -13.4506    1.7262 O.2     1  NONAME1    -0.2487
     21 C13         4.1836  -15.2099    0.2398 C.3     1  NONAME1     0.1228
     22 N3          3.8653  -16.5928   -0.3783 N.am    1  NONAME1    -0.3006
     23 C14         3.3196  -17.6150    0.4294 C.2     1  NONAME1     0.2345
     24 O6          2.5622  -17.2673    1.3464 O.2     1  NONAME1    -0.2737
     25 C15         3.6596  -19.2383    0.2329 C.3     1  NONAME1     0.1058
     26 N4          2.6769  -20.2348   -0.4728 N.am    1  NONAME1    -0.2911
     27 C16         2.6328  -21.6275   -0.0831 C.2     1  NONAME1     0.2368
     28 O7          3.5853  -22.0240    0.6096 O.2     1  NONAME1    -0.2735
     29 C17         1.5364  -22.8425   -0.6351 C.3     1  NONAME1     0.1073
     30 N5         -0.1520  -22.4978   -0.6048 N.am    1  NONAME1    -0.2625
     31 C18        -1.2514  -23.6157   -0.6141 C.3     1  NONAME1     0.1247
     32 C19        -2.7010  -23.2441   -0.5642 C.3     1  NONAME1    -0.0077
     33 C20        -2.8339  -22.2212    0.5520 C.3     1  NONAME1    -0.0221
     34 C21        -2.0534  -20.9796    0.0000 C.3     1  NONAME1     0.0998
     35 C22        -0.5478  -21.3034    0.0000 C.2     1  NONAME1     0.2384
     36 O8          0.2162  -20.7000    0.7559 O.2     1  NONAME1    -0.2735
     37 N6         -2.1461  -19.4511    0.5283 N.am    1  NONAME1    -0.3025
     38 C23        -1.9089  -18.3640   -0.3367 C.2     1  NONAME1     0.2339
     39 O9         -1.2138  -18.5575   -1.3458 O.2     1  NONAME1    -0.2738
     40 C24        -2.5131  -16.8158   -0.1253 C.3     1  NONAME1     0.0995
     41 N7         -1.5820  -15.6769    0.2754 N.am    1  NONAME1    -0.3024
     42 C25        -1.7080  -14.3237   -0.1290 C.2     1  NONAME1     0.2376
     43 O10        -2.8124  -13.8345   -0.3920 O.2     1  NONAME1    -0.2736
     44 C26        -3.9287  -16.6225    0.4502 C.3     1  NONAME1    -0.0230
     45 C27        -4.9512  -17.6793    0.0291 C.3     1  NONAME1    -0.0165
     46 C28        -6.3856  -17.1278    0.0177 C.3     1  NONAME1     0.1048
     47 N8         -7.3022  -18.2634   -0.0516 N.pl3   1  NONAME1    -0.1138
     48 C29        -8.5597  -18.0417    0.0595 C.cat   1  NONAME1     0.3765
     49 N9         -9.2122  -16.8702    0.2000 N.pl3   1  NONAME1    -0.2893
     50 N10        -9.4087  -19.0906    0.0929 N.pl3   1  NONAME1    -0.2893
     51 O11        -1.2479  -24.3613    0.6509 O.3     1  NONAME1    -0.3742
     52 C30         1.9025  -24.5587    0.0000 C.3     1  NONAME1    -0.0168
     53 C31         1.3822  -25.7422   -0.9273 C.3     1  NONAME1    -0.0603
     54 C32         3.4081  -24.8825    0.0000 C.3     1  NONAME1    -0.0512
     55 C33         3.9082  -26.2936    0.3051 C.3     1  NONAME1    -0.0650
     56 C34         1.6600  -19.5799   -1.2645 C.3     1  NONAME1     0.0040
     57 C35         5.1349  -19.5463   -0.1554 C.3     1  NONAME1    -0.0004
     58 C36         6.3004  -18.7314    0.3790 C.ar    1  NONAME1    -0.0439
     59 C37         6.2379  -17.8602    1.4720 C.ar    1  NONAME1    -0.0410
     60 C38         7.3349  -17.0458    1.8036 C.ar    1  NONAME1     0.0597
     61 C39         8.5303  -17.1253    1.0807 C.ar    1  NONAME1     0.1340
     62 C40         8.6530  -18.1182    0.1115 C.ar    1  NONAME1    -0.0186
     63 C41         7.5489  -18.8995   -0.2441 C.ar    1  NONAME1    -0.0550
     64 O12         9.5586  -16.2842    1.4057 O.3     1  NONAME1    -0.4940
     65 C42        10.3205  -15.7617    0.3173 C.3     1  NONAME1     0.0788
     66 Br1         7.1257  -15.8059    3.2302 Br      1  NONAME1    -0.0465
     67 C43         5.5114  -14.4938   -0.2961 C.3     1  NONAME1    -0.0179
     68 C44         6.3559  -15.2170   -1.3500 C.3     1  NONAME1    -0.0605
     69 C45         5.3648  -13.0230   -0.7413 C.3     1  NONAME1    -0.0605
     70 C46         0.9565  -15.4497   -0.9361 C.3     1  NONAME1    -0.0254
     71 H1         -5.9265   -4.6476    0.3471 H       1  NONAME1     0.0230
     72 H2         -6.1683   -5.8107   -0.9603 H       1  NONAME1     0.0230
     73 H3         -6.2120   -6.3486    0.7344 H       1  NONAME1     0.0230
     74 H4         -3.7867   -5.3288   -0.8382 H       1  NONAME1     0.0267
     75 H5         -3.7834   -5.5010    0.9085 H       1  NONAME1     0.0267
     76 H6         -4.3257   -7.9904    0.6090 H       1  NONAME1     0.0358
     77 H7         -4.1030   -7.7675   -1.1464 H       1  NONAME1     0.0358
     78 H8         -2.5254   -9.6406   -0.1728 H       1  NONAME1     0.1494
     79 H9         -0.4454   -9.4802    1.4017 H       1  NONAME1     0.0595
     80 H10         0.3692   -7.4089    0.7224 H       1  NONAME1     0.0296
     81 H11         0.3805   -7.7987   -0.9951 H       1  NONAME1     0.0296
     82 H12         2.3023   -9.3210    0.7278 H       1  NONAME1     0.0401
     83 H13         2.5328   -8.6020   -0.8883 H       1  NONAME1     0.0401
     84 H14         3.1937   -5.6299   -1.0271 H       1  NONAME1     0.0365
     85 H15         2.6419   -4.7550    0.4140 H       1  NONAME1     0.0365
     86 H16         1.4874   -5.7353   -0.4987 H       1  NONAME1     0.0365
     87 H17        -1.5087  -11.8231    0.6367 H       1  NONAME1     0.1496
     88 H18        -0.3477  -13.1989   -1.4312 H       1  NONAME1     0.0632
     89 H19         0.8293  -14.5148    1.0544 H       1  NONAME1     0.0755
     90 H20         4.4888  -15.5457    1.2424 H       1  NONAME1     0.0617
     91 H21         4.4485  -16.8902   -1.1471 H       1  NONAME1     0.1496
     92 H22         3.5937  -19.5664    1.2829 H       1  NONAME1     0.0600
     93 H23         1.7210  -22.9316   -1.7146 H       1  NONAME1     0.0600
     94 H24        -1.0593  -24.2869   -1.4554 H       1  NONAME1     0.0807
     95 H25        -3.3075  -24.1250   -0.2874 H       1  NONAME1     0.0307
     96 H26        -3.0788  -22.9069   -1.5327 H       1  NONAME1     0.0307
     97 H27        -3.9363  -22.1367    0.6401 H       1  NONAME1     0.0289
     98 H28        -2.5256  -22.5180    1.5552 H       1  NONAME1     0.0289
     99 H29        -3.5590  -20.6558    0.0000 H       1  NONAME1     0.0594
    100 H30        -2.7069  -19.2961    1.3559 H       1  NONAME1     0.1495
    101 H31        -2.6720  -16.5623   -1.1888 H       1  NONAME1     0.0594
    102 H32        -0.7522  -15.9779    0.7698 H       1  NONAME1     0.1495
    103 H33        -4.3047  -15.6536    0.0927 H       1  NONAME1     0.0289
    104 H34        -3.8969  -16.5347    1.5414 H       1  NONAME1     0.0289
    105 H35        -4.7229  -18.0669   -0.9708 H       1  NONAME1     0.0298
    106 H36        -4.8883  -18.5226    0.7251 H       1  NONAME1     0.0298
    107 H37        -6.5186  -16.4747   -0.8546 H       1  NONAME1     0.0693
    108 H38        -6.5675  -16.5396    0.9250 H       1  NONAME1     0.0693
    109 H39        -8.7115  -16.0254   -0.0371 H       1  NONAME1     0.2546
    110 H40       -10.1995  -16.8444   -0.0057 H       1  NONAME1     0.2546
    111 H41       -10.2826  -18.9851   -0.3991 H       1  NONAME1     0.2546
    112 H42        -8.9313  -19.9524   -0.1476 H       1  NONAME1     0.2546
    113 H43        -1.4136  -25.2956    0.4321 H       1  NONAME1     0.2117
    114 H44         0.3969  -24.2349    0.0000 H       1  NONAME1     0.0321
    115 H45         0.6476  -25.4089   -1.6604 H       1  NONAME1     0.0233
    116 H46         0.9088  -26.4900   -0.2753 H       1  NONAME1     0.0233
    117 H47         2.1435  -26.2426   -1.5271 H       1  NONAME1     0.0233
    118 H48         3.8598  -24.5419   -0.9397 H       1  NONAME1     0.0266
    119 H49         3.8436  -24.2848    0.8062 H       1  NONAME1     0.0266
    120 H50         3.4128  -26.7200    1.1802 H       1  NONAME1     0.0230
    121 H51         3.7935  -26.9757   -0.5418 H       1  NONAME1     0.0230
    122 H52         4.9853  -26.2525    0.5109 H       1  NONAME1     0.0230
    123 H53         1.0605  -18.9684   -0.5844 H       1  NONAME1     0.0429
    124 H54         2.1335  -18.9001   -1.9775 H       1  NONAME1     0.0429
    125 H55         1.0380  -20.2903   -1.8054 H       1  NONAME1     0.0429
    126 H56         5.3638  -20.5751    0.1489 H       1  NONAME1     0.0336
    127 H57         5.1940  -19.5396   -1.2516 H       1  NONAME1     0.0336
    128 H58         5.3334  -17.7770    2.0695 H       1  NONAME1     0.0632
    129 H59         9.6041  -18.3060   -0.3777 H       1  NONAME1     0.0654
    130 H60         7.6749  -19.6529   -1.0206 H       1  NONAME1     0.0621
    131 H61        10.1484  -16.2418   -0.6506 H       1  NONAME1     0.0660
    132 H62        11.3806  -15.8614    0.5684 H       1  NONAME1     0.0660
    133 H63        10.0939  -14.6964    0.2056 H       1  NONAME1     0.0660
    134 H64         6.1633  -14.4330    0.5869 H       1  NONAME1     0.0319
    135 H65         6.3357  -16.3002   -1.2603 H       1  NONAME1     0.0233
    136 H66         7.4085  -14.9232   -1.2285 H       1  NONAME1     0.0233
    137 H67         6.0657  -14.9398   -2.3683 H       1  NONAME1     0.0233
    138 H68         5.2162  -12.3621    0.1200 H       1  NONAME1     0.0233
    139 H69         6.2782  -12.6679   -1.2379 H       1  NONAME1     0.0233
    140 H70         4.5384  -12.8839   -1.4433 H       1  NONAME1     0.0233
    141 H71         0.0600  -15.5819   -1.5439 H       1  NONAME1     0.0266
    142 H72         1.0735  -16.3513   -0.3365 H       1  NONAME1     0.0266
    143 H73         1.7894  -15.3983   -1.6438 H       1  NONAME1     0.0266
@<TRIPOS>BOND
     1     1     2    1
     2     2     3    1
     3     3     4    1
     4     4     5    2
     5     4     6   am
     6     6     7    1
     7     7     8    1
     8     8     9    1
     9     9    10    1
    10    10    11    2
    11    10    12    1
    12     7    13    1
    13    13    14    2
    14    13    15   am
    15    15    16    1
    16    16    17    1
    17    17    18    1
    18    18    19    1
    19    19    20    2
    20    19    21    1
    21    21    22    1
    22    22    23   am
    23    23    24    2
    24    23    25    1
    25    25    26    1
    26    26    27   am
    27    27    28    2
    28    27    29    1
    29    29    30    1
    30    30    31    1
    31    31    32    1
    32    32    33    1
    33    33    34    1
    34    34    35    1
    35    30    35   am
    36    35    36    2
    37    34    37    1
    38    37    38   am
    39    38    39    2
    40    38    40    1
    41    40    41    1
    42    41    42   am
    43    16    42    1
    44    42    43    2
    45    40    44    1
    46    44    45    1
    47    45    46    1
    48    46    47    1
    49    47    48    2
    50    48    49    1
    51    48    50    1
    52    31    51    1
    53    29    52    1
    54    52    53    1
    55    52    54    1
    56    54    55    1
    57    26    56    1
    58    25    57    1
    59    57    58    1
    60    58    59   ar
    61    59    60   ar
    62    60    61   ar
    63    61    62   ar
    64    62    63   ar
    65    58    63   ar
    66    61    64    1
    67    64    65    1
    68    60    66    1
    69    21    67    1
    70    67    68    1
    71    67    69    1
    72    17    70    1
    73     1    71    1
    74     1    72    1
    75     1    73    1
    76     2    74    1
    77     2    75    1
    78     3    76    1
    79     3    77    1
    80     6    78    1
    81     7    79    1
    82     8    80    1
    83     8    81    1
    84     9    82    1
    85     9    83    1
    86    12    84    1
    87    12    85    1
    88    12    86    1
    89    15    87    1
    90    16    88    1
    91    17    89    1
    92    21    90    1
    93    22    91    1
    94    25    92    1
    95    29    93    1
    96    31    94    1
    97    32    95    1
    98    32    96    1
    99    33    97    1
   100    33    98    1
   101    34    99    1
   102    37   100    1
   103    40   101    1
   104    41   102    1
   105    44   103    1
   106    44   104    1
   107    45   105    1
   108    45   106    1
   109    46   107    1
   110    46   108    1
   111    49   109    1
   112    49   110    1
   113    50   111    1
   114    50   112    1
   115    51   113    1
   116    52   114    1
   117    53   115    1
   118    53   116    1
   119    53   117    1
   120    54   118    1
   121    54   119    1
   122    55   120    1
   123    55   121    1
   124    55   122    1
   125    56   123    1
   126    56   124    1
   127    56   125    1
   128    57   126    1
   129    57   127    1
   130    59   128    1
   131    62   129    1
   132    63   130    1
   133    65   131    1
   134    65   132    1
   135    65   133    1
   136    67   134    1
   137    68   135    1
   138    68   136    1
   139    68   137    1
   140    69   138    1
   141    69   139    1
   142    69   140    1
   143    70   141    1
   144    70   142    1
   145    70   143    1
